******************************************************************************
* *
* TEXAS INSTRUMENTS INCORPORATED
* Standard Linear and Logic Group
* HSPICE Model for SN74LVC2G74
* PROPERTY OF TEXAS INSTRUMENTS INCORPORATED. UNAUTHORIZED
* REPRODUCTION AND/OR DISTRIBUTION IS STRICTLY PROHIBITED.
*
* THIS PRODUCT IS PROTECTED UNDER COPYRIGHT LAW.
* CREATED 2006, (C) COPYRIGHT 2006, TEXAS INSTRUMENTS
* INCORPORATED, ALL RIGHTS RESERVED
*
* UNLESS THERE IS A SIGNED, WRITTEN AGREEMENT TO THE
* CONTRARY, TEXAS INSTRUMENTS (TI) IS PROVIDING THE IBIS
* MODELS AND WITHOUT ANY WARRANTY, EXPRESSED OR
* IMPLIED. TI ASSUMES NO LIABILITY FOR:
* 1) THE ACCURACY OF THE HSPICE MODELS PROVIDED TO YOUR
* COMPANY;
* 2) THE PROPER FUNCTIONING OF THESE HSPICE MODELS IN YOUR
* DESIGN OR FOR ANY RESULTING APPLICATIONS; OR
* 3) INFRINGEMENT OF PATENTS, COPYRIGHTS OR INTELLECTUAL
* PROPERTY RIGHTS RESULTING FROM YOUR USE OF THESE HSPICE
* MODELS.
*
* TI PROVIDES HSPICE MODELS AS A SERVICE TO OUR CUSTOMERS.
* YOU AND YOUR COMPANY SHALL NOT DISTRIBUTE, SELL OR GIVE
* THESE MODELS TO ANYONE ELSE WITHOUT PRIOR WRITTEN
* PERMISSION FROM TI.
*
* TI RESERVES THE RIGHT TO MAKE CHANGES TO OUR PRODUCTS OR
* TO DISCONTINUE ANY SEMICONDUCTOR PRODUCT OR SERVICE
* WITHOUT NOTICE, AND ADVISES OUR CUSTOMERS TO OBTAIN THE
* LATEST VERSION OF RELEVANT INFORMATION TO VERIFY, BEFORE
* PLACING ORDERS, THAT THE INFORMATION BEING RELIED ON IS
* CURRENT.
*
* PLEASE BE AWARE THAT YOUR RECEIPT AND USE OF THE HSPICE
* INFORMATION PROVIDED SHALL SERVE AS ACCEPTANCE OF THESE
* TERMS AND CONDITIONS. IF YOU DO NOT ACCEPT THESE TERMS,
* YOU SHOULD RETURN OR DESTROY THE HSPICE MODELS AND ANY
* OTHER ACCOMPANYING INFORMATION IMMEDIATELY.
* TEXAS INSTRUMENTS PROPRIETARY INFORMATION *


* JOBNAME: 6411414
* DATE OF MODEL: 20 May 2002 at 14:17:03
* PINCOUNT: 8


*

*----------- START DATA ----------------
*----------- R-L-C MODEL DATA --------------
R1 PI1 PM1 2.35435E-02
L1 PM1 PE1 1.51969E-09
C1_0 PE1 0 1.81043E-13
K1_2 L1 L2 2.92391E-01
C1_2 PE1 PE2 7.19808E-14
K1_3 L1 L3 1.47125E-01
C1_3 PE1 PE3 8.25068E-15
K1_4 L1 L4 7.07862E-02
C1_4 PE1 PE4 4.64992E-15
R2 PI2 PM2 2.30152E-02
L2 PM2 PE2 1.11186E-09
C2_0 PE2 0 7.14675E-14
K2_3 L2 L3 3.25152E-01
C2_3 PE2 PE3 6.81100E-14
K2_4 L2 L4 9.72490E-02
C2_4 PE2 PE4 6.74133E-15
R3 PI3 PM3 2.30889E-02
L3 PM3 PE3 1.07040E-09
C3_0 PE3 0 7.22368E-14
K3_4 L3 L4 2.66179E-01
C3_4 PE3 PE4 6.83317E-14
R4 PI4 PM4 2.68508E-02
L4 PM4 PE4 2.04578E-09
C4_0 PE4 0 2.88317E-13
K4_5 L4 L5 3.88637E-02
C4_5 PE4 PE5 4.16940E-15
R5 PI5 PM5 2.72195E-02
L5 PM5 PE5 1.54227E-09
C5_0 PE5 0 1.82778E-13
K5_6 L5 L6 3.13241E-01
C5_6 PE5 PE6 7.41441E-14
K5_7 L5 L7 1.16387E-01
C5_7 PE5 PE7 6.89638E-15
K5_8 L5 L8 7.92901E-02
C5_8 PE5 PE8 4.78497E-15
R6 PI6 PM6 2.30592E-02
L6 PM6 PE6 1.10030E-09
C6_0 PE6 0 7.36679E-14
K6_7 L6 L7 3.24412E-01
C6_7 PE6 PE7 6.78219E-14
K6_8 L6 L8 1.39694E-01
C6_8 PE6 PE8 8.32652E-15
R7 PI7 PM7 2.29850E-02
L7 PM7 PE7 1.06618E-09
C7_0 PE7 0 6.89722E-14
K7_8 L7 L8 2.74926E-01
C7_8 PE7 PE8 7.11659E-14
R8 PI8 PM8 3.79299E-02
L8 PM8 PE8 1.69615E-09
C8_0 PE8 0 1.90417E-13

*----------- END DATA --------------
* END OF PACED CREATED SPICE DECK
