******************************************************************************
* *
* TEXAS INSTRUMENTS INCORPORATED
* Standard Linear and Logic Group
* HSPICE Model for SN74LVC2G74
* PROPERTY OF TEXAS INSTRUMENTS INCORPORATED. UNAUTHORIZED
* REPRODUCTION AND/OR DISTRIBUTION IS STRICTLY PROHIBITED.
*
* THIS PRODUCT IS PROTECTED UNDER COPYRIGHT LAW.
* CREATED 2006, (C) COPYRIGHT 2006, TEXAS INSTRUMENTS
* INCORPORATED, ALL RIGHTS RESERVED
*
* UNLESS THERE IS A SIGNED, WRITTEN AGREEMENT TO THE
* CONTRARY, TEXAS INSTRUMENTS (TI) IS PROVIDING THE IBIS
* MODELS AND WITHOUT ANY WARRANTY, EXPRESSED OR
* IMPLIED. TI ASSUMES NO LIABILITY FOR:
* 1) THE ACCURACY OF THE HSPICE MODELS PROVIDED TO YOUR
* COMPANY;
* 2) THE PROPER FUNCTIONING OF THESE HSPICE MODELS IN YOUR
* DESIGN OR FOR ANY RESULTING APPLICATIONS; OR
* 3) INFRINGEMENT OF PATENTS, COPYRIGHTS OR INTELLECTUAL
* PROPERTY RIGHTS RESULTING FROM YOUR USE OF THESE HSPICE
* MODELS.
*
* TI PROVIDES HSPICE MODELS AS A SERVICE TO OUR CUSTOMERS.
* YOU AND YOUR COMPANY SHALL NOT DISTRIBUTE, SELL OR GIVE
* THESE MODELS TO ANYONE ELSE WITHOUT PRIOR WRITTEN
* PERMISSION FROM TI.
*
* TI RESERVES THE RIGHT TO MAKE CHANGES TO OUR PRODUCTS OR
* TO DISCONTINUE ANY SEMICONDUCTOR PRODUCT OR SERVICE
* WITHOUT NOTICE, AND ADVISES OUR CUSTOMERS TO OBTAIN THE
* LATEST VERSION OF RELEVANT INFORMATION TO VERIFY, BEFORE
* PLACING ORDERS, THAT THE INFORMATION BEING RELIED ON IS
* CURRENT.
*
* PLEASE BE AWARE THAT YOUR RECEIPT AND USE OF THE HSPICE
* INFORMATION PROVIDED SHALL SERVE AS ACCEPTANCE OF THESE
* TERMS AND CONDITIONS. IF YOU DO NOT ACCEPT THESE TERMS,
* YOU SHOULD RETURN OR DESTROY THE HSPICE MODELS AND ANY
* OTHER ACCOMPANYING INFORMATION IMMEDIATELY.
* TEXAS INSTRUMENTS PROPRIETARY INFORMATION *


* JOBNAME: 8p
* DATE OF MODEL: 09 Jun 2003 at 14:29:37
* PINCOUNT: 9


* Created at Frequency: 100 MHz.
*

*----------- START DATA ----------------
*----------- INPUT NODES --------------
*----------- R-L-C MODEL DATA --------------
R1 PI1 PM1 7.40000E-04
L1 PM1 PE1 2.45900E-11
C1_77777 PE1 77777 2.97490E-14
K1_2 L1 L2 2.38077E-01
C1_2 PE1 PE2 1.17879E-14
K1_3 L1 L3 1.21484E-01
C1_3 PE1 PE3 2.16605E-15
K1_4 L1 L4 8.05205E-02
C1_4 PE1 PE4 1.28346E-15
K1_5 L1 L5 2.31395E-01
C1_5 PE1 PE5 1.22797E-14
K1_6 L1 L6 1.66735E-01
C1_6 PE1 PE6 4.28331E-15
K1_7 L1 L7 1.08439E-01
C1_7 PE1 PE7 1.48867E-15
K1_8 L1 L8 7.68605E-02
C1_8 PE1 PE8 1.05179E-15
R2 PI2 PM2 7.50000E-04
L2 PM2 PE2 2.44700E-11
C2_77777 PE2 77777 2.22392E-14
K2_3 L2 L3 2.37434E-01
C2_3 PE2 PE3 1.12602E-14
K2_4 L2 L4 1.21484E-01
C2_4 PE2 PE4 2.16605E-15
K2_5 L2 L5 1.66735E-01
C2_5 PE2 PE5 4.28401E-15
K2_6 L2 L6 2.30078E-01
C2_6 PE2 PE6 1.01756E-14
K2_7 L2 L7 1.66326E-01
C2_7 PE2 PE7 3.83772E-15
K2_8 L2 L8 1.08031E-01
C2_8 PE2 PE8 1.48937E-15
R3 PI3 PM3 7.50000E-04
L3 PM3 PE3 2.44700E-11
C3_77777 PE3 77777 2.22392E-14
K3_4 L3 L4 2.38077E-01
C3_4 PE3 PE4 1.17878E-14
K3_5 L3 L5 1.08439E-01
C3_5 PE3 PE5 1.48937E-15
K3_6 L3 L6 1.66326E-01
C3_6 PE3 PE6 3.83772E-15
K3_7 L3 L7 2.30078E-01
C3_7 PE3 PE7 1.01756E-14
K3_8 L3 L8 1.66735E-01
C3_8 PE3 PE8 4.28401E-15
R4 PI4 PM4 7.40000E-04
L4 PM4 PE4 2.45900E-11
C4_77777 PE4 77777 2.97490E-14
K4_5 L4 L5 7.68605E-02
C4_5 PE4 PE5 1.05179E-15
K4_6 L4 L6 1.08031E-01
C4_6 PE4 PE6 1.48867E-15
K4_7 L4 L7 1.66735E-01
C4_7 PE4 PE7 4.28331E-15
K4_8 L4 L8 2.31395E-01
C4_8 PE4 PE8 1.22797E-14
R5 PI5 PM5 7.40000E-04
L5 PM5 PE5 2.45900E-11
C5_77777 PE5 77777 2.97829E-14
K5_6 L5 L6 2.38077E-01
C5_6 PE5 PE6 1.17798E-14
K5_7 L5 L7 1.21484E-01
C5_7 PE5 PE7 2.15808E-15
K5_8 L5 L8 8.05205E-02
C5_8 PE5 PE8 1.27382E-15
R6 PI6 PM6 7.50000E-04
L6 PM6 PE6 2.44700E-11
C6_77777 PE6 77777 2.22695E-14
K6_7 L6 L7 2.37434E-01
C6_7 PE6 PE7 1.12536E-14
K6_8 L6 L8 1.21484E-01
C6_8 PE6 PE8 2.15807E-15
R7 PI7 PM7 7.50000E-04
L7 PM7 PE7 2.44700E-11
C7_77777 PE7 77777 2.22695E-14
K7_8 L7 L8 2.38077E-01
C7_8 PE7 PE8 1.17798E-14
R8 PI8 PM8 7.40000E-04
L8 PM8 PE8 2.45900E-11
C8_77777 PE8 77777 2.97829E-14
K1_9 L1 L9 -2.28868E-02
K2_9 L2 L9 -2.29428E-02
K3_9 L3 L9 -2.29428E-02
K4_9 L4 L9 -2.27832E-02
K5_9 L5 L9 -2.39224E-02
K6_9 L6 L9 -2.39810E-02
K7_9 L7 L9 -2.39810E-02
K8_9 L8 L9 -2.38188E-02
R9 PI9 PM9 3.53000E-03
L9 PM9 PE9 3.79190E-10


*----------- OUTPUT NODES --------------

*----------- END DATA --------------
* END OF PACED CREATED SPICE DECK
