LTspice 26.0.1 for Windows
Circuit: D:\Alearn\chedui\1Wfscl\TSAL\仿真\swich.net
Start Time: Sat May  2 14:56:54 2026
solver = Normal
Maximum thread count: 16
tnom = 27
temp = 27
method = trap
Direct Newton iteration succeeded in finding operating point.
Total elapsed time: 0.177 seconds.

Files loaded:
D:\Alearn\chedui\1Wfscl\TSAL\仿真\swich.net
C:\Users\30836\AppData\Local\LTspice\lib\cmp\standard.dio
C:\Users\30836\AppData\Local\LTspice\lib\cmp\standard.mos

