LTspice 26.0.1 for Windows
Circuit: D:\Alearn\chedui\1Wfscl\IMD-BMS错误锁存\往年\2024\仿真\lock.net
Start Time: Wed Apr  1 20:52:43 2026
solver = Normal
Maximum thread count: 16
tnom = 27
temp = 27
method = trap
Direct Newton iteration succeeded in finding operating point.
Total elapsed time: 0.130 seconds.

Files loaded:
D:\Alearn\chedui\1Wfscl\IMD-BMS错误锁存\往年\2024\仿真\lock.net
C:\Users\30836\AppData\Local\LTspice\lib\cmp\standard.dio
C:\Users\30836\AppData\Local\LTspice\lib\cmp\standard.bjt

