LTspice 26.0.1 for Windows
Circuit: D:\Alearn\chedui\1Wfscl\IMD-BMS错误锁存\仿真\full.net
Start Time: Sun Apr 19 14:10:35 2026
Options:NO_CARET_WARNING
solver = Normal
Maximum thread count: 16
tnom = 27
temp = 27
method = trap
Instance "u7:M2": Length shorter than recommended for a level 3 MOSFET.
Direct Newton iteration failed to find operating point.
Starting Gmin stepping
Gmin stepping succeeded in finding the operating point.

Total elapsed time: 2.118 seconds.

Files loaded:
D:\Alearn\chedui\1Wfscl\IMD-BMS错误锁存\仿真\full.net
C:\Users\30836\AppData\Local\LTspice\lib\cmp\standard.dio
D:\Alearn\chedui\1Wfscl\IMD-BMS错误锁存\仿真\lm393.lib
D:\Alearn\chedui\1Wfscl\IMD-BMS错误锁存\仿真\SN74LVC1G00.cir
D:\Alearn\chedui\1Wfscl\IMD-BMS错误锁存\仿真\SN74LVC1G14.cir
D:\Alearn\chedui\1Wfscl\IMD-BMS错误锁存\仿真\SN74LVC2G04.cir
D:\Alearn\chedui\1Wfscl\IMD-BMS错误锁存\仿真\AO3480A.lib
D:\Alearn\chedui\1Wfscl\IMD-BMS错误锁存\仿真\LM393.sub
D:\Alearn\chedui\1Wfscl\IMD-BMS错误锁存\仿真\power1.lib
D:\Alearn\chedui\1Wfscl\IMD-BMS错误锁存\仿真\SN74LS21.lib

