LTspice 26.0.1 for Windows
Circuit: D:\codex\sim\simulations\tsal.cir
Start Time: Mon May 18 20:58:44 2026
Options:plotwinsize=0
solver = Normal
Maximum thread count: 16
tnom = 27
temp = 27
method = trap
Direct Newton iteration succeeded in finding operating point.
Total elapsed time: 0.051 seconds.

Files loaded:
D:\codex\sim\simulations\tsal.cir

red_unsafe_on: V(red_out_k) =0 at 0.05
red_unsafe_off: V(red_out_k) =5 at 0.25
green_unsafe: V(green_out_k) =5 at 0.05
red_safe: V(red_out_k) =5 at 1.3
green_safe: V(green_out_k) =0 at 1.3
v_safe_final: V(v_safe) =5 at 1.3
relays_open_final: V(relays_open) =5 at 1.3
blink_rise_2: V(red_on)=2.5  AT 0.3603605
blink_rise_3: V(red_on)=2.5  AT 0.720720625
blink_fall_2: V(red_on)=2.5  AT 0.547471625
blink_period_s: blink_rise_3-blink_rise_2=0.360360125
blink_frequency_hz: 1/(blink_rise_3-blink_rise_2)=2.77500181242
blink_on_time_s: blink_fall_2-blink_rise_2=0.187111125
blink_duty_percent: 100*(blink_fall_2-blink_rise_2)/(blink_rise_3-blink_rise_2)=51.9233711
